44
5n
C        -15.08880      -19.41770      -25.75190
C        -15.08460      -20.17230      -24.55720
C        -14.84820      -20.06380      -26.97820
C        -15.29630      -17.94690      -25.74460
C        -14.77310      -21.54700      -24.59040
C        -14.55670      -21.42840      -27.00160
C        -14.46410      -22.17510      -25.81920
N        -15.99910      -17.34350      -24.69710
C        -16.22340      -16.02750      -24.58200
N        -14.84610      -17.23480      -26.73850
C        -14.98840      -15.84370      -26.73850
C        -15.64830      -15.17840      -25.67970
C        -15.72830      -13.76800      -25.67570
C        -15.12240      -13.03460      -26.71920
C        -14.45150      -13.69660      -27.76260
C        -14.40980      -15.10020      -27.78510
O        -16.84820      -15.56760      -23.63510
C        -14.06030      -23.64090      -25.92950
C        -15.37780      -24.44980      -25.93870
C        -13.06870      -23.97150      -24.78640
O        -13.34940      -23.83420      -27.15810
F        -15.18630      -11.68620      -26.73870
C        -13.06950      -25.15430      -27.61340
C        -12.10580      -25.05000      -28.79940
O        -10.84820      -24.61540      -28.33820
H        -15.28870      -19.70660      -23.60460
H        -14.84810      -19.52100      -27.91260
H        -14.75080      -22.10000      -23.66360
H        -14.35920      -21.89860      -27.93870
H        -16.40720      -17.93850      -23.98770
H        -16.23720      -13.24800      -24.87570
H        -13.99010      -13.12240      -28.55330
H        -13.89920      -15.60560      -28.59170
H        -15.91260      -24.33710      -24.99520
H        -16.04080      -24.09530      -26.72880
H        -15.24820      -25.51500      -26.10970
H        -13.56720      -23.98550      -23.82010
H        -12.51460      -24.90170      -24.89910
H        -12.30210      -23.19940      -24.73870
H        -13.99020      -25.62520      -27.95770
H        -12.64760      -25.79510      -26.84140
H        -12.46750      -24.37270      -29.57030
H        -11.98390      -26.02950      -29.26260
H        -10.63230      -25.10640      -27.55780
