4GIH_lig_ejm_31
 OpenBabel12192217333D

 32 33  0  0  0  0  0  0  0  0999 V2000
   -5.3620   -3.6890  -16.2220 C   0  0  0  0  0  0  0  0  0  0  0  0
   -4.7780   -4.9640  -16.1990 C   0  0  0  0  0  0  0  0  0  0  0  0
   -5.5360   -6.0890  -15.8270 C   0  0  0  0  0  0  0  0  0  0  0  0
   -6.9010   -5.9450  -15.4740 C   0  0  0  0  0  0  0  0  0  0  0  0
   -7.4920   -4.6570  -15.5270 C   0  0  0  0  0  0  0  0  0  0  0  0
   -6.7190   -3.5400  -15.8970 C   0  0  0  0  0  0  0  0  0  0  0  0
   -9.1730   -4.4150  -15.1870 Cl  0  0  0  0  0  0  0  0  0  0  0  0
   -7.7130   -7.1310  -15.0380 C   0  0  0  0  0  0  0  0  0  0  0  0
   -8.1430   -7.1980  -13.8860 O   0  0  0  0  0  0  0  0  0  0  0  0
   -7.8970   -8.0560  -15.9970 N   0  0  0  0  0  0  0  0  0  0  0  0
   -8.7210   -9.2140  -16.0060 C   0  0  0  0  0  0  0  0  0  0  0  0
   -9.5780   -9.5990  -14.9510 C   0  0  0  0  0  0  0  0  0  0  0  0
  -10.3850  -10.7320  -15.1340 C   0  0  0  0  0  0  0  0  0  0  0  0
  -10.3680  -11.4890  -16.2530 N   0  0  0  0  0  0  0  0  0  0  0  0
   -9.5400  -11.1490  -17.2700 C   0  0  0  0  0  0  0  0  0  0  0  0
   -8.7140  -10.0000  -17.1740 C   0  0  0  0  0  0  0  0  0  0  0  0
   -9.5740  -11.9340  -18.4560 N   0  0  0  0  0  0  0  0  0  0  0  0
   -8.6700  -12.0390  -19.4490 C   0  0  0  0  0  0  0  0  0  0  0  0
   -7.5800  -11.4710  -19.4780 O   0  0  0  0  0  0  0  0  0  0  0  0
   -9.0520  -12.9530  -20.6080 C   0  0  0  0  0  0  0  0  0  0  0  0
   -4.7520   -7.6240  -15.8230 Cl  0  0  0  0  0  0  0  0  0  0  0  0
   -4.7730   -2.8280  -16.4990 H   0  0  0  0  0  0  0  0  0  0  0  0
   -7.1770   -2.5640  -15.9390 H   0  0  0  0  0  0  0  0  0  0  0  0
   -7.4220   -7.8670  -16.8650 H   0  0  0  0  0  0  0  0  0  0  0  0
   -8.0850   -9.6950  -17.9930 H   0  0  0  0  0  0  0  0  0  0  0  0
  -10.3990  -12.5050  -18.5520 H   0  0  0  0  0  0  0  0  0  0  0  0
   -9.1560  -13.9750  -20.2570 H   0  0  0  0  0  0  0  0  0  0  0  0
   -8.2850  -12.9380  -21.3840 H   0  0  0  0  0  0  0  0  0  0  0  0
   -9.9950  -12.6470  -21.0610 H   0  0  0  0  0  0  0  0  0  0  0  0
  -11.0650  -11.0420  -14.3550 H   0  0  0  0  0  0  0  0  0  0  0  0
   -9.6620   -9.0410  -14.0310 H   0  0  0  0  0  0  0  0  0  0  0  0
   -3.7340   -5.0780  -16.4530 H   0  0  0  0  0  0  0  0  0  0  0  0
  1 22  1  0  0  0  0
  1  6  1  0  0  0  0
  1  2  2  0  0  0  0
  2  3  1  0  0  0  0
  2 32  1  0  0  0  0
  3  4  2  0  0  0  0
  3 21  1  0  0  0  0
  4  5  1  0  0  0  0
  4  8  1  0  0  0  0
  5  6  2  0  0  0  0
  5  7  1  0  0  0  0
  6 23  1  0  0  0  0
  8  9  2  0  0  0  0
  8 10  1  0  0  0  0
 10 24  1  0  0  0  0
 10 11  1  0  0  0  0
 11 16  1  0  0  0  0
 11 12  2  0  0  0  0
 12 13  1  0  0  0  0
 12 31  1  0  0  0  0
 13 14  2  0  0  0  0
 13 30  1  0  0  0  0
 14 15  1  0  0  0  0
 15 16  2  0  0  0  0
 15 17  1  0  0  0  0
 16 25  1  0  0  0  0
 17 26  1  0  0  0  0
 17 18  1  0  0  0  0
 18 19  2  0  0  0  0
 18 20  1  0  0  0  0
 20 27  1  0  0  0  0
 20 28  1  0  0  0  0
 20 29  1  0  0  0  0
M  END
$$$$
